Version 4
SHEET 1 1244 680
WIRE 160 -48 32 -48
WIRE 208 -48 160 -48
WIRE 336 -48 208 -48
WIRE 416 -48 336 -48
WIRE 544 -48 416 -48
WIRE 656 -48 544 -48
WIRE 208 16 208 -48
WIRE 416 16 416 -48
WIRE 32 32 32 -48
WIRE 208 32 208 16
WIRE 656 32 656 -48
WIRE 256 48 256 16
WIRE 336 48 336 -48
WIRE 464 48 464 16
WIRE 544 48 544 -48
WIRE 80 64 80 32
WIRE 160 64 160 -48
WIRE 32 96 32 80
WIRE -320 112 -352 112
WIRE 32 112 32 96
WIRE 32 112 -240 112
WIRE 656 112 656 80
WIRE -352 192 -352 112
WIRE -352 192 -496 192
WIRE -320 192 -352 192
WIRE 208 192 208 80
WIRE 208 192 -240 192
WIRE 544 192 432 192
WIRE 416 208 416 80
WIRE 416 208 -176 208
WIRE 32 224 32 112
WIRE 160 224 32 224
WIRE 208 224 208 192
WIRE 336 224 208 224
WIRE 416 224 416 208
WIRE 432 224 432 192
WIRE 432 224 416 224
WIRE 32 240 32 224
WIRE 208 240 208 224
WIRE 464 240 464 224
WIRE 544 240 544 192
WIRE 80 272 80 240
WIRE 160 272 160 224
WIRE 256 272 256 240
WIRE 336 272 336 224
WIRE -352 304 -352 192
WIRE -320 304 -352 304
WIRE -176 304 -176 208
WIRE -176 304 -240 304
WIRE 32 352 32 304
WIRE 208 352 208 304
WIRE 208 352 32 352
WIRE 256 352 208 352
WIRE 416 352 416 288
WIRE 416 352 256 352
WIRE 656 352 656 112
WIRE 656 352 416 352
FLAG 256 352 0
FLAG -496 272 0
SYMBOL Misc\\SCR 48 96 R180
SYMATTR InstName U1
SYMATTR Value SCR_ST
SYMBOL Misc\\SCR 48 304 R180
SYMATTR InstName U2
SYMATTR Value SCR_ST
SYMBOL Misc\\SCR 224 80 R180
SYMATTR InstName U3
SYMATTR Value SCR_ST
SYMBOL Misc\\SCR 432 80 R180
SYMATTR InstName U4
SYMATTR Value SCR_ST
SYMBOL Misc\\SCR 224 304 R180
SYMATTR InstName U5
SYMATTR Value SCR_ST
SYMBOL Misc\\SCR 432 288 R180
SYMATTR InstName U6
SYMATTR Value SCR_ST
SYMBOL voltage 64 64 R270
WINDOW 0 32 56 VTop 2
WINDOW 3 -32 56 VBottom 2
WINDOW 123 0 0 Left 0
WINDOW 39 0 0 Left 0
SYMATTR InstName V1
SYMATTR Value PULSE(0 5 3.34m 1n 1n 1m 20m)
SYMBOL voltage 64 272 R270
WINDOW 0 32 56 VTop 2
WINDOW 3 -32 56 VBottom 2
WINDOW 123 0 0 Left 0
WINDOW 39 0 0 Left 0
SYMATTR InstName V2
SYMATTR Value PULSE(0 5 13.34m 1n 1n 1m 20m)
SYMBOL voltage 240 48 R270
WINDOW 0 32 56 VTop 2
WINDOW 3 -32 56 VBottom 2
WINDOW 123 0 0 Left 0
WINDOW 39 0 0 Left 0
SYMATTR InstName V3
SYMATTR Value PULSE(0 5 16.7m 1n 1n 1m 20m)
SYMBOL voltage 240 272 R270
WINDOW 0 32 56 VTop 2
WINDOW 3 -32 56 VBottom 2
WINDOW 123 0 0 Left 0
WINDOW 39 0 0 Left 0
SYMATTR InstName V4
SYMATTR Value PULSE(0 5 6.7m 1n 1n 1m 20m)
SYMBOL voltage 448 48 R270
WINDOW 0 32 56 VTop 2
WINDOW 3 -32 56 VBottom 2
WINDOW 123 0 0 Left 0
WINDOW 39 0 0 Left 0
SYMATTR InstName V5
SYMATTR Value PULSE(0 5 10.01m 1n 1n 1m 20m)
SYMBOL voltage 448 240 R270
WINDOW 0 32 56 VTop 2
WINDOW 3 -32 56 VBottom 2
WINDOW 123 0 0 Left 0
WINDOW 39 0 0 Left 0
SYMATTR InstName V6
SYMATTR Value PULSE(0 5 0.01m 1n 1n 1m 20m)
SYMBOL voltage -224 112 R90
WINDOW 0 -32 56 VBottom 2
WINDOW 3 32 56 VTop 2
WINDOW 123 0 0 Left 0
WINDOW 39 0 0 Left 0
SYMATTR InstName V7
SYMATTR Value SINE(0 230 50 0 0 0)
SYMBOL voltage -224 192 R90
WINDOW 0 -32 56 VBottom 2
WINDOW 3 32 56 VTop 2
WINDOW 123 0 0 Left 0
WINDOW 39 0 0 Left 0
SYMATTR InstName V8
SYMATTR Value SINE(0 230 50 0 0 120)
SYMBOL voltage -224 304 R90
WINDOW 0 -32 56 VBottom 2
WINDOW 3 32 56 VTop 2
WINDOW 123 0 0 Left 0
WINDOW 39 0 0 Left 0
SYMATTR InstName V9
SYMATTR Value SINE(0 230 50 0 0 240)
SYMBOL res 640 16 R0
SYMATTR InstName R1
SYMATTR Value 10
SYMBOL res -512 176 R0
SYMATTR InstName R2
SYMATTR Value 0.1
TEXT -416 376 Left 2 !.tran 0.06
TEXT -184 -96 Left 2 !.inc C:\\Users\\eswar\\OneDrive\\Documents\\LTspiceXVII\\lib\\st_high-temperature_scr_pspice\\st_high-temperature_scr.lib
