Version 4
SHEET 1 1608 680
WIRE 336 -208 288 -208
WIRE 464 -208 336 -208
WIRE 512 -208 464 -208
WIRE 624 -208 512 -208
WIRE 800 -208 624 -208
WIRE 976 -208 800 -208
WIRE 800 -144 800 -208
WIRE 976 -144 976 -208
WIRE 288 -128 288 -208
WIRE 464 -128 464 -208
WIRE 80 -64 -32 -64
WIRE -32 -48 -32 -64
WIRE 80 -32 80 -64
WIRE 128 -32 80 -32
WIRE 288 -32 288 -64
WIRE 288 -32 128 -32
WIRE 624 -32 624 -208
WIRE 800 -32 800 -80
WIRE 1120 -32 800 -32
WIRE 288 -16 288 -32
WIRE 336 -16 288 -16
WIRE 464 -16 464 -64
WIRE 512 -16 464 -16
WIRE 800 0 800 -32
WIRE 800 0 752 0
WIRE 976 0 976 -80
WIRE 976 0 928 0
WIRE 1088 0 976 0
WIRE 224 16 32 16
WIRE 464 16 464 -16
WIRE 464 16 224 16
WIRE -32 48 -32 32
WIRE 32 48 32 16
WIRE 32 48 -32 48
WIRE 288 64 288 -16
WIRE 464 64 464 16
WIRE 800 64 800 0
WIRE 976 64 976 0
WIRE 976 80 976 64
WIRE 288 208 288 128
WIRE 464 208 464 128
WIRE 464 208 288 208
WIRE 624 208 624 48
WIRE 624 208 464 208
WIRE 752 208 624 208
WIRE 800 208 800 128
WIRE 800 208 752 208
WIRE 928 208 800 208
WIRE 976 208 976 128
WIRE 976 208 928 208
WIRE 624 224 624 208
WIRE 224 240 224 16
WIRE 1088 240 1088 0
WIRE 1088 240 224 240
WIRE 128 256 128 -32
WIRE 1120 256 1120 -32
WIRE 1120 256 128 256
FLAG 624 224 0
SYMBOL Misc\\SCR 304 -64 R180
WINDOW 3 -91 -1 Left 2
SYMATTR Value TN3050H-12LY
SYMATTR InstName U1
SYMBOL voltage -32 -64 R0
WINDOW 123 0 0 Left 0
WINDOW 39 0 0 Left 0
SYMATTR InstName V1
SYMATTR Value SINE(0 230 50 0 0 0)
SYMBOL res 608 -48 R0
SYMATTR InstName R1
SYMATTR Value 10
SYMBOL voltage 336 -112 R180
WINDOW 0 24 96 Left 2
WINDOW 3 -103 128 Left 2
WINDOW 123 0 0 Left 0
WINDOW 39 0 0 Left 0
SYMATTR InstName V2
SYMATTR Value PULSE(0 5 0 1u 1u 10m 20m 2)
SYMBOL Misc\\SCR 480 -64 R180
WINDOW 3 -97 8 Left 2
SYMATTR Value TN3050H-12LY
SYMATTR InstName U3
SYMBOL voltage 512 -112 R180
WINDOW 0 24 96 Left 2
WINDOW 3 -148 126 Left 2
WINDOW 123 0 0 Left 0
WINDOW 39 0 0 Left 0
SYMATTR InstName V3
SYMATTR Value PULSE(0 5 10m 1u 1u 10m 20m 2)
SYMBOL Misc\\SCR 784 64 R0
WINDOW 3 -92 10 Left 2
SYMATTR Value TN3050H-12LY
SYMATTR InstName U5
SYMBOL voltage 752 112 R0
WINDOW 0 24 96 Left 2
WINDOW 3 -74 117 Left 2
WINDOW 123 0 0 Left 0
WINDOW 39 0 0 Left 0
SYMATTR InstName V6
SYMATTR Value PULSE(0 5 40m 1u 1u 10m 20m 2)
SYMBOL Misc\\SCR 960 64 R0
WINDOW 3 -88 7 Left 2
SYMATTR Value TN3050H-12LY
SYMATTR InstName U7
SYMBOL voltage 928 112 R0
WINDOW 0 24 96 Left 2
WINDOW 3 -45 117 Left 2
WINDOW 123 0 0 Left 0
WINDOW 39 0 0 Left 0
SYMATTR InstName V7
SYMATTR Value PULSE(0 5 50m 1n 1n 10m 20m 2)
SYMBOL voltage 512 80 R180
WINDOW 0 24 96 Left 2
WINDOW 3 -126 -69 Left 2
WINDOW 123 0 0 Left 0
WINDOW 39 0 0 Left 0
SYMATTR InstName V4
SYMATTR Value PULSE(0 5 0 1u 1u 10m 20m 2)
SYMBOL voltage 336 80 R180
WINDOW 0 24 96 Left 2
WINDOW 3 -82 -74 Left 2
WINDOW 123 0 0 Left 0
WINDOW 39 0 0 Left 0
SYMATTR InstName V5
SYMATTR Value PULSE(0 5 10m 1u 1u 10m 20m 2)
SYMBOL Misc\\SCR 784 -144 R0
WINDOW 3 -92 10 Left 2
SYMATTR Value TN3050H-12LY
SYMATTR InstName U2
SYMBOL Misc\\SCR 960 -144 R0
WINDOW 3 -92 10 Left 2
SYMATTR Value TN3050H-12LY
SYMATTR InstName U4
SYMBOL Misc\\SCR 304 128 R180
WINDOW 3 -92 10 Left 2
SYMATTR Value TN3050H-12LY
SYMATTR InstName U6
SYMBOL Misc\\SCR 480 128 R180
WINDOW 3 -92 10 Left 2
SYMATTR Value TN3050H-12LY
SYMATTR InstName U8
SYMBOL voltage 752 -96 R0
WINDOW 0 24 96 Left 2
WINDOW 3 -112 -67 Left 2
WINDOW 123 0 0 Left 0
WINDOW 39 0 0 Left 0
SYMATTR InstName V8
SYMATTR Value PULSE(0 5 50m 1u 1u 10m 20m 2)
SYMBOL voltage 928 -96 R0
WINDOW 0 24 96 Left 2
WINDOW 3 -59 -71 Left 2
WINDOW 123 0 0 Left 0
WINDOW 39 0 0 Left 0
SYMATTR InstName V9
SYMATTR Value PULSE(0 5 40m 1u 1u 10m 20m 2)
TEXT -104 -352 Left 2 !.inc C:\\Users\\eswar\\OneDrive\\Documents\\LTspiceXVII\\lib\\st_high-temperature_scr_pspice\\st_high-temperature_scr.lib
TEXT -106 262 Left 2 !.tran 0.04
