Version 4
SHEET 1 880 680
WIRE 112 64 0 64
WIRE 240 64 208 64
WIRE 336 64 320 64
WIRE 368 64 336 64
WIRE 0 96 0 64
WIRE 336 112 336 64
WIRE 368 112 368 64
WIRE 160 144 160 128
WIRE 0 240 0 176
WIRE 160 240 160 224
WIRE 160 240 0 240
WIRE 208 240 160 240
WIRE 336 240 336 176
WIRE 336 240 208 240
WIRE 368 240 368 192
WIRE 368 240 336 240
FLAG 208 240 0
SYMBOL voltage 0 80 R0
WINDOW 123 0 0 Left 0
WINDOW 39 0 0 Left 0
SYMATTR InstName V1
SYMATTR Value 100
SYMBOL ind 224 80 R270
WINDOW 0 32 56 VTop 2
WINDOW 3 5 56 VBottom 2
SYMATTR InstName L1
SYMATTR Value 10m
SYMBOL res 352 96 R0
SYMATTR InstName R1
SYMATTR Value 10
SYMBOL npn 112 128 R270
SYMATTR InstName Q1
SYMATTR Value 2N2222
SYMBOL voltage 160 128 R0
WINDOW 123 0 0 Left 0
WINDOW 39 0 0 Left 0
SYMATTR InstName V2
SYMATTR Value PULSE(0 5 0 1n 1n 10m 20m)
SYMBOL cap 320 112 R0
SYMATTR InstName C1
SYMATTR Value 10m
TEXT -32 264 Left 2 !.tran 0.1
