Version 4
SHEET 1 1364 680
WIRE 192 16 64 16
WIRE 304 16 192 16
WIRE 192 48 192 16
WIRE 192 48 112 48
WIRE 304 48 304 16
WIRE 64 64 64 16
WIRE 64 80 64 64
WIRE 0 96 -80 96
WIRE -80 128 -80 96
WIRE 0 128 0 96
WIRE 64 128 0 128
WIRE 64 144 64 128
WIRE 112 144 112 48
WIRE 112 144 64 144
WIRE 176 144 112 144
WIRE 192 160 192 112
WIRE 192 160 0 160
WIRE 64 176 64 144
WIRE 304 176 304 128
WIRE -80 224 -80 208
WIRE 0 224 0 160
WIRE 0 224 -80 224
WIRE 112 240 112 176
WIRE 128 240 112 240
WIRE 240 240 240 48
WIRE 240 240 128 240
WIRE 64 272 64 240
WIRE 192 272 192 224
WIRE 192 272 64 272
WIRE 256 272 192 272
WIRE 304 272 304 256
WIRE 304 272 256 272
WIRE 176 320 176 144
WIRE 176 320 128 320
FLAG 256 272 0
SYMBOL Misc\\SCR 80 240 R180
SYMATTR InstName U1
SYMBOL Misc\\SCR 208 112 R180
SYMATTR InstName U2
SYMBOL diode 208 224 R180
WINDOW 0 24 64 Left 2
WINDOW 3 24 0 Left 2
SYMATTR InstName D1
SYMBOL diode 80 128 R180
WINDOW 0 24 64 Left 2
WINDOW 3 24 0 Left 2
SYMATTR InstName D2
SYMBOL voltage -80 112 R0
WINDOW 123 0 0 Left 0
WINDOW 39 0 0 Left 0
SYMATTR InstName V1
SYMATTR Value SINE(0 230 50)
SYMBOL res 288 32 R0
SYMATTR InstName R1
SYMATTR Value 8
SYMBOL voltage 304 160 R0
WINDOW 123 0 0 Left 0
WINDOW 39 0 0 Left 0
SYMATTR InstName V2
SYMATTR Value 150
SYMBOL voltage 128 224 R0
WINDOW 123 0 0 Left 0
WINDOW 39 0 0 Left 0
SYMATTR InstName V3
SYMATTR Value PULSE(0 5 2.5m 1n 1n 1m 20m)
TEXT -114 340 Left 2 !.tran 0.06
TEXT -64 -40 Left 2 !.inc C:\\Users\\eswar\\OneDrive\\Documents\\LTspiceXVII\\lib\\st_high-temperature_scr_pspice\\st_high-temperature_scr.lib
