Version 4
SHEET 1 1564 680
WIRE 352 16 192 16
WIRE 480 16 416 16
WIRE 624 16 480 16
WIRE 624 32 624 16
WIRE 192 48 192 16
WIRE 416 112 416 64
WIRE 624 128 624 112
WIRE 416 224 416 192
WIRE 480 224 480 16
WIRE 480 224 416 224
WIRE 624 224 624 208
WIRE 192 256 192 128
WIRE 336 256 192 256
WIRE 464 256 336 256
WIRE 336 272 336 256
WIRE 464 336 464 256
WIRE 624 336 624 304
WIRE 624 336 464 336
FLAG 336 272 0
SYMBOL voltage 192 32 R0
WINDOW 0 -48 9 Left 2
WINDOW 123 0 0 Left 0
WINDOW 39 0 0 Left 0
SYMATTR InstName V1
SYMATTR Value SINE(0 230 50)
SYMBOL voltage 416 96 R0
WINDOW 3 -137 304 Left 2
WINDOW 123 0 0 Left 0
WINDOW 39 0 0 Left 0
SYMATTR Value PULSE(0 5 2.5m 1n 1n 1m 20m)
SYMATTR InstName V2
SYMBOL Misc\\SCR 352 32 R270
SYMATTR InstName U1
SYMATTR Value SCR_ST
SYMBOL res 608 16 R0
SYMATTR InstName R1
SYMATTR Value 5
SYMBOL ind 608 112 R0
SYMATTR InstName L1
SYMATTR Value 2m
SYMBOL voltage 624 208 R0
WINDOW 123 0 0 Left 0
WINDOW 39 0 0 Left 0
SYMATTR InstName V3
SYMATTR Value 110
TEXT 136 -88 Left 2 !.inc C:\\Users\\eswar\\OneDrive\\Documents\\LTspiceXVII\\lib\\st_high-temperature_scr_pspice\\st_high-temperature_scr.lib
TEXT 136 424 Left 2 !.tran 0.06
