Version 4
SHEET 1 880 680
WIRE -32 112 -64 112
WIRE -16 112 -32 112
WIRE 144 112 48 112
WIRE 240 112 208 112
WIRE -64 192 -64 112
WIRE -32 192 -64 192
WIRE 144 192 48 192
WIRE 240 192 240 112
WIRE 240 192 208 192
WIRE 320 192 240 192
WIRE 432 192 320 192
WIRE 432 208 432 192
WIRE 320 240 320 192
WIRE -64 272 -64 192
WIRE -16 272 -64 272
WIRE 144 272 64 272
WIRE 240 272 240 192
WIRE 240 272 208 272
WIRE 432 304 432 288
WIRE -64 384 -64 272
WIRE 192 384 -64 384
WIRE 320 384 320 304
WIRE 320 384 192 384
WIRE 432 384 320 384
FLAG 192 384 0
SYMBOL diode 144 128 R270
WINDOW 0 32 32 VTop 2
WINDOW 3 0 32 VBottom 2
SYMATTR InstName D1
SYMATTR Value 1N4148
SYMBOL diode 144 208 R270
WINDOW 0 32 32 VTop 2
WINDOW 3 0 32 VBottom 2
SYMATTR InstName D2
SYMATTR Value 1N4148
SYMBOL diode 144 288 R270
WINDOW 0 32 32 VTop 2
WINDOW 3 0 32 VBottom 2
SYMATTR InstName D3
SYMATTR Value 1N4148
SYMBOL voltage 64 112 R90
WINDOW 0 -32 56 VBottom 2
WINDOW 3 32 56 VTop 2
WINDOW 123 0 0 Left 0
WINDOW 39 0 0 Left 0
SYMATTR InstName V1
SYMATTR Value SINE(0 240 50 0 0 0)
SYMBOL voltage 64 192 R90
WINDOW 0 -32 56 VBottom 2
WINDOW 3 32 56 VTop 2
WINDOW 123 0 0 Left 0
WINDOW 39 0 0 Left 0
SYMATTR InstName V2
SYMATTR Value SINE(0 240 50 0 0 120)
SYMBOL voltage 80 272 R90
WINDOW 0 -32 56 VBottom 2
WINDOW 3 32 56 VTop 2
WINDOW 123 0 0 Left 0
WINDOW 39 0 0 Left 0
SYMATTR InstName V3
SYMATTR Value SINE(0 240 50 0 0 240)
SYMBOL res 416 192 R0
SYMATTR InstName R1
SYMATTR Value 10
SYMBOL ind 416 288 R0
SYMATTR InstName L1
SYMATTR Value 10m
SYMBOL diode 336 304 R180
WINDOW 0 24 64 Left 2
WINDOW 3 24 0 Left 2
SYMATTR InstName D4
SYMATTR Value 1N4148
TEXT -128 408 Left 2 !.tran 0.01
